Adsorption isotherm of Methane on CuBTC
DOI: 10.1007/s10934-015-0060-4
Article source: Figure 1
Adsorbate Methane: InChIKey VNWKTOKETHGBQD-UHFFFAOYSA-N
Kind: experiment
Temperature: 298 K
pressure (bar)	uptake (mmol/g)
0.7157	1.0632
1.4287	1.5302
2.1485	2.0068
2.8899	2.5407
5.0228	4.0199
9.9863	6.2029
10.3581	6.5051
16.7448	8.094
24.9063	9.3362
40.0455	10.4041
62.934	10.7648
83.3716	10.9978
