Adsorption isotherm of Methane on CuBTC
DOI: 10.1002/chem.200902719
Adsorbate Methane: InChIKey VNWKTOKETHGBQD-UHFFFAOYSA-N
Temperature: 298 K
pressure (bar)	uptake (mmol/g)
0.132707	0.226131
0.301842	0.339196
0.483023	0.486181
1.19561	1.10804
1.38891	1.23241
1.49763	1.31156
1.60631	1.42462
2.00499	1.68467
2.41577	1.94472
2.50032	2.01256
2.80234	2.21608
2.98357	2.32915
3.50308	2.65704
3.99847	2.9397
4.51803	3.23367
5.02552	3.50503
5.49672	3.78769
6.01634	4.03643
6.52385	4.29648
7.00719	4.54523
7.50266	4.77136
8.0102	5.00879
8.49357	5.23492
9.01323	5.44975
9.5329	5.66457
10.0042	5.85678
