Adsorption isotherm of Hydrogen on IRMOF-1
DOI: 10.1002/adfm.200500561
Adsorbate Hydrogen: InChIKey UFHFLCQGNIYNRP-UHFFFAOYSA-N
Temperature: 298 K
pressure (bar)	uptake (wt%)
0.310676	0.019531
5.13617	0.000625751
7.93711	0.0204602
12.4495	0.0599963
17.8969	0.06066
30.0339	0.159605
44.8187	0.200392
58.3573	0.270268
66.2941	0.300474
72.9855	0.340276
