Adsorption isotherm of Methane on IRMOF-1
DOI: 10.1007/s10934-015-0060-4
Article source: Figure 3
Adsorbate Methane: InChIKey VNWKTOKETHGBQD-UHFFFAOYSA-N
Kind: experiment
Temperature: 298 K
pressure (bar)	uptake (mmol/g)
0.2755	0.2044
0.9282	0.4215
2.4787	1.1888
4.9978	2.3282
7.4895	3.4114
9.9376	4.488
14.9954	6.4327
19.9649	8.1519
25.0101	9.7056
29.9795	11.0224
35.0151	12.1702
39.9748	13.1427
44.9749	13.9921
49.9476	14.7678
54.9436	15.4205
59.9763	15.9594
