Adsorption isotherm of Methane on IRMOF-3
DOI: 10.1007/s10934-015-0060-4
Article source: Figure 3
Adsorbate Methane: InChIKey VNWKTOKETHGBQD-UHFFFAOYSA-N
Kind: experiment
Temperature: 298 K
pressure (bar)	uptake (mmol/g)
0.6705	0.2897
2.4912	1.1113
4.9687	2.3321
7.5127	3.4677
10.0135	4.5003
14.9958	6.3461
19.9749	8.0351
25.0136	9.3827
29.9732	10.5427
34.989	11.629
39.972	12.4139
45.0012	13.1773
49.9611	13.8607
54.9707	14.3473
59.977	14.92
