Adsorption isotherm of Methane on IRMOF-14
DOI: 10.1007/s10934-015-0060-4
Article source: Figure 3
Adsorbate Methane: InChIKey VNWKTOKETHGBQD-UHFFFAOYSA-N
Kind: experiment
Temperature: 298 K
pressure (bar)	uptake (mmol/g)
0.4535	0.2855
1.0819	0.6664
2.564	1.4867
5.0515	2.8733
7.4659	4.1331
10.0558	5.5305
15.0153	7.9049
20.0035	10.238
25.0117	12.307
30.0179	14.2107
34.9828	16.097
39.9818	17.6107
44.9631	19.2612
50.0145	20.4514
54.9461	21.7243
60.0015	22.7829
