Adsorption isotherm of Methane on MOF-177
DOI: 10.1007/s10934-015-0060-4
Article source: Figure 3
Adsorbate Methane: InChIKey VNWKTOKETHGBQD-UHFFFAOYSA-N
Kind: experiment
Temperature: 298 K
pressure (bar)	uptake (mmol/g)
0.3378	0.2935
0.7203	0.4253
1.0155	0.5261
2.5452	1.2043
4.9852	2.4677
7.4918	3.704
9.9869	4.8755
14.9688	7.1948
19.9971	9.3788
25.0056	11.486
29.9846	13.3195
34.9802	14.9593
39.9461	16.5898
44.9617	17.9651
49.9741	19.1928
54.9602	20.3621
59.9594	21.4422
