Adsorption isotherm of Methane on SNU-77H
DOI: 10.1002/chem.201003376
Adsorbate Methane: InChIKey VNWKTOKETHGBQD-UHFFFAOYSA-N
Temperature: 195 K
pressure (bar)	uptake (cm3(STP)/g)
0.110339	13.6683
0.172501	17.5136
0.265745	27.2484
0.309259	37.0806
0.365205	42.9215
0.414935	54.7249
0.461557	60.5841
0.511287	64.4537
0.570342	70.2885
0.616964	74.1642
0.671356	81.9916
0.721086	85.8612
0.77237	95.6781
0.818992	97.5703
0.870276	103.42
0.923114	109.267
0.974398	115.117
1.01791	115.032
