Adsorption isotherm of Methane on UiO(bdpc)
DOI: 10.1039/C3cc48275h
Adsorbate Methane: InChIKey VNWKTOKETHGBQD-UHFFFAOYSA-N
Temperature: 273 K
pressure (bar)	uptake (wt%)
51.8349	0.565307
95.8612	1.1853
137.835	1.43741
173.174	1.95443
229.646	2.62378
328.972	3.7029
440.45	4.77883
551.049	5.69709
657.89	6.66898
755.75	7.48533
861.711	8.29955
967.673	9.11377
1064.36	9.71991
1169.74	10.429
1270.47	11.0341
1378.73	11.5319
1483.52	12.1359
1583.67	12.6359
1687.87	13.1348
1788.02	13.6347
1899.74	14.0264
1995.26	14.4223
2099.17	14.8686
