Adsorption isotherm of Methane on Zn(BDC)(DMBPY) 0.5
DOI: 10.1002/adfm.201101479
Adsorbate Methane: InChIKey VNWKTOKETHGBQD-UHFFFAOYSA-N
Temperature: 298 K
pressure (bar)	uptake (wt%)
0.0442951	0.0398671
0.0858217	0.0598007
0.121811	0.0697674
0.16057	0.0697674
0.204865	0.0996678
0.254697	0.139535
0.321139	0.179402
0.404193	0.219269
0.506625	0.299003
0.570299	0.318937
0.642279	0.358804
0.719795	0.408638
0.805617	0.468439
0.902512	0.508306
1.01325	0.568106
